test/data/singlephase38lines/singlephase38lines.dss
New Line.L0_1     Phases=1 Bus1=0.1        Bus2=1.1        LineCode=0_1   Length=1 Normamps=450
New Line.L1_2     Phases=1 Bus1=1.1        Bus2=2.1        LineCode=1_2   Length=1 Normamps=700
New Line.L2_3     Phases=1 Bus1=2.1        Bus2=3.1        LineCode=2_3   Length=1 Normamps=90
New Line.L2_4     Phases=1 Bus1=2.1        Bus2=4.1        LineCode=2_4   Length=1 Normamps=700
New Line.L4_5     Phases=1 Bus1=4.1        Bus2=5.1        LineCode=4_5   Length=1 Normamps=700
New Line.L5_6     Phases=1 Bus1=5.1        Bus2=6.1        LineCode=5_6   Length=1 Normamps=335
New Line.L6_7     Phases=1 Bus1=6.1        Bus2=7.1        LineCode=6_7   Length=1 Normamps=335
New Line.L7_8     Phases=1 Bus1=7.1        Bus2=8.1        LineCode=7_8   Length=1 Normamps=120
New Line.L8_9     Phases=1 Bus1=8.1        Bus2=9.1        LineCode=8_9   Length=1 Normamps=90
New Line.L9_10    Phases=1 Bus1=9.1        Bus2=10.1       LineCode=9_10  Length=1 Normamps=120
New Line.L7_11    Phases=1 Bus1=7.1        Bus2=11.1       LineCode=7_11  Length=1 Normamps=120
New Line.L11_12   Phases=1 Bus1=11.1       Bus2=12.1       LineCode=11_12 Length=1 Normamps=120
New Line.L12_13   Phases=1 Bus1=12.1       Bus2=13.1       LineCode=12_13 Length=1 Normamps=120
New Line.L13_14   Phases=1 Bus1=13.1       Bus2=14.1       LineCode=13_14 Length=1 Normamps=90
New Line.L14_15   Phases=1 Bus1=14.1       Bus2=15.1       LineCode=14_15 Length=1 Normamps=120
New Line.L15_16   Phases=1 Bus1=15.1       Bus2=16.1       LineCode=15_16 Length=1 Normamps=120
New Line.L16_17   Phases=1 Bus1=16.1       Bus2=17.1       LineCode=16_17 Length=1 Normamps=90
New Line.L17_18   Phases=1 Bus1=17.1       Bus2=18.1       LineCode=17_18 Length=1 Normamps=90
New Line.L18_19   Phases=1 Bus1=18.1       Bus2=19.1       LineCode=18_19 Length=1 Normamps=90
New Line.L19_20   Phases=1 Bus1=19.1       Bus2=20.1       LineCode=19_20 Length=1 Normamps=90
New Line.L20_21   Phases=1 Bus1=20.1       Bus2=21.1       LineCode=20_21 Length=1 Normamps=120
New Line.L21_22   Phases=1 Bus1=21.1       Bus2=22.1       LineCode=21_22 Length=1 Normamps=90
New Line.L22_23   Phases=1 Bus1=22.1       Bus2=23.1       LineCode=22_23 Length=1 Normamps=90
New Line.L23_24   Phases=1 Bus1=23.1       Bus2=24.1       LineCode=23_24 Length=1 Normamps=120
New Line.L24_25   Phases=1 Bus1=24.1       Bus2=25.1       LineCode=24_25 Length=1 Normamps=90
New Line.L7_26    Phases=1 Bus1=7.1        Bus2=26.1       LineCode=7_26  Length=1 Normamps=335
New Line.L26_27   Phases=1 Bus1=26.1       Bus2=27.1       LineCode=26_27 Length=1 Normamps=120
New Line.L7_28    Phases=1 Bus1=7.1        Bus2=28.1       LineCode=7_28  Length=1 Normamps=120
New Line.L7_29    Phases=1 Bus1=7.1        Bus2=29.1       LineCode=7_29  Length=1 Normamps=335
New Line.L29_30   Phases=1 Bus1=29.1       Bus2=30.1       LineCode=29_30 Length=1 Normamps=135
New Line.L30_31   Phases=1 Bus1=30.1       Bus2=31.1       LineCode=30_31 Length=1 Normamps=90
New Line.L31_32   Phases=1 Bus1=31.1       Bus2=32.1       LineCode=31_32 Length=1 Normamps=90
New Line.L32_33   Phases=1 Bus1=32.1       Bus2=33.1       LineCode=32_33 Length=1 Normamps=120
New Line.L33_34   Phases=1 Bus1=33.1       Bus2=34.1       LineCode=33_34 Length=1 Normamps=120
New Line.L34_35   Phases=1 Bus1=34.1       Bus2=35.1       LineCode=34_35 Length=1 Normamps=120
New Line.L6_36    Phases=1 Bus1=6.1        Bus2=36.1       LineCode=6_36  Length=1 Normamps=120
New Line.L6_37    Phases=1 Bus1=6.1        Bus2=37.1       LineCode=6_37  Length=1 Normamps=120
